Circuit: * C:\Users\ocata\OneDrive\Desktop\LTSpice\AFE.asc

V1: Removing PWL point (1e-008,4.37e-007)
V1: Removing PWL point (1e-007,1.95e-007)
Direct Newton iteration failed to find .op point.  (Use ".option noopiter" to skip.)
Starting Gmin stepping
Gmin = 10
Gmin = 1.07374
Gmin = 0.115292
Gmin = 0.0123794
Gmin = 0.00132923
Gmin = 0.000142725
Gmin = 1.5325e-005
vernier = 0.5
Gmin = 2.5711e-006
vernier = 0.25
vernier = 0.125
vernier = 0.0625
vernier = 0.03125
Gmin = 2.34653e-006
vernier = 0.015625
vernier = 0.0208333
Gmin = 2.25391e-006
vernier = 0.0277778
vernier = 0.037037
Gmin = 2.1008e-006
vernier = 0.0493827
Gmin = 1.88105e-006
vernier = 0.0658435
vernier = 0.0877914
Gmin = 1.56366e-006
vernier = 0.117055
vernier = 0.156073
Gmin = 1.16648e-006
vernier = 0.0780367
vernier = 0.104049
Gmin = 9.68266e-007
vernier = 0.138732
Gmin = 7.12099e-007
vernier = 0.184976
vernier = 0.246634
Gmin = 4.27369e-007
vernier = 0.328846
vernier = 0.438461
Gmin = 1.91697e-007
vernier = 0.584614
Gmin = 5.57788e-008
vernier = 0.779486
vernier = 1
Gmin = 7.85059e-009
Gmin = 8.42951e-010
Gmin = 9.05112e-011
Gmin = 9.71856e-012
Gmin = 1.04352e-012
Gmin = 1.12047e-013
Gmin = 0
Gmin stepping succeeded in finding the operating point.

Ignoring empty pin current: Ix(x1:pw)
Ignoring empty pin current: Ix(x1:pw)

Date: Mon Sep 29 12:36:59 2025
Total elapsed time: 0.210 seconds.

tnom = 27
temp = 27
method = modified trap
totiter = 5576
traniter = 3958
tranpoints = 1512
accept = 1352
rejected = 160
matrix size = 76
fillins = 81
solver = Normal
Thread vector: 21.4/8.4[8] 4.2/2.0[8] 2.3/1.1[8] 0.3/0.8[1]  2592/500
Matrix Compiler1:     419 opcodes  1.3/[0.6]/0.6
Matrix Compiler2: off
