Circuit: * C:\Users\ocata\OneDrive\Desktop\LTSpice\AFE.asc

V1: Removing PWL point (1e-007,4.37e-007)
V1: Removing PWL point (2.6e-007,1.95e-007)
V1: Removing PWL point (3.2e-007,4.37e-007)
V1: Removing PWL point (5.2e-007,4.37e-007)
V1: Removing PWL point (6e-007,1.95e-007)
V1: Removing PWL point (6.8e-007,1.95e-007)
V1: Removing PWL point (9.2e-007,1.95e-007)
V1: Removing PWL point (1.16e-006,4.37e-007)
V1: Removing PWL point (1.4e-006,4.37e-007)
V1: Removing PWL point (1.58e-006,1.95e-007)
V1: Removing PWL point (1.7e-006,4.37e-007)
V1: Removing PWL point (1.78e-006,4.37e-007)
V1: Removing PWL point (1.96e-006,1.95e-007)
WARNING: Node FPGA_IN is floating.

WARNING: Less than two connections to node FPGA_IN.  This node is used by C8.
Direct Newton iteration failed to find .op point.  (Use ".option noopiter" to skip.)
Starting Gmin stepping
Gmin = 10
Gmin = 1.07374
Gmin = 0.115292
Gmin = 0.0123794
Gmin = 0.00132923
Gmin = 0.000142725
Gmin = 1.5325e-005
Gmin = 1.6455e-006
vernier = 0.5
vernier = 0.25
Gmin = 9.18165e-007
vernier = 0.333333
vernier = 0.444444
Gmin = 3.89715e-007
vernier = 0.592592
vernier = 0.790123
Gmin = 1.03562e-007
vernier = 1
Gmin = 1.3779e-008
Gmin = 1.47951e-009
Gmin = 1.58861e-010
Gmin = 1.70576e-011
Gmin = 1.83154e-012
Gmin = 1.9666e-013
Gmin = 0
Gmin stepping succeeded in finding the operating point.

Ignoring empty pin current: Ix(x1:pw)
Ignoring empty pin current: Ix(x1:pw)



Date: Wed Oct 01 21:20:34 2025
Total elapsed time: 15.543 seconds.

tnom = 27
temp = 27
method = modified trap
totiter = 401820
traniter = 400884
tranpoints = 200246
accept = 200246
rejected = 0
matrix size = 81
fillins = 112
solver = Normal
Thread vector: 20.3/9.1[8] 7.5/3.2[8] 2.9/1.7[8] 0.2/0.7[1]  2592/500
Matrix Compiler1: 12.72 KB object code size  2.7/1.6/[0.7]
Matrix Compiler2: 8.93 KB object code size  0.9/1.6/[0.4]

