Circuit: * C:\Users\ocata\OneDrive\Desktop\LTSpice\AFE.asc

V1: Removing PWL point (1e-008,1.95e-007)
V1: Removing PWL point (4e-008,4.37e-007)
V1: Removing PWL point (1.8e-007,1.95e-007)
Direct Newton iteration failed to find .op point.  (Use ".option noopiter" to skip.)
Starting Gmin stepping
Gmin = 10
Gmin = 1.07374
Gmin = 0.115292
Gmin = 0.0123794
Gmin = 0.00132923
Gmin = 0.000142725
Gmin = 1.5325e-005
Gmin = 1.6455e-006
vernier = 0.5
vernier = 0.25
Gmin = 9.18165e-007
vernier = 0.333333
vernier = 0.444444
Gmin = 3.89715e-007
vernier = 0.592592
vernier = 0.790123
Gmin = 1.03562e-007
vernier = 1
Gmin = 1.3779e-008
Gmin = 1.47951e-009
Gmin = 1.58861e-010
Gmin = 1.70576e-011
Gmin = 1.83154e-012
Gmin = 1.9666e-013
Gmin = 0
Gmin stepping succeeded in finding the operating point.

Ignoring empty pin current: Ix(x1:pw)

nfloor: v(onoise)*1e-9=1.58387e-016 at 5e+007
vn2: INTEG( (v(onoise)*1e-9)^2 )=15779.7 FROM 1e+006 TO 2.5e+008
vnrms: sqrt(vn2)=125.617


Date: Tue Sep 30 22:41:13 2025
Total elapsed time: 0.263 seconds.

tnom = 27
temp = 27
method = trap
totiter = 936
traniter = 0
tranpoints = 0
accept = 0
rejected = 0
matrix size = 78
fillins = 95
solver = Normal
Matrix Compiler1:     507 opcodes
Matrix Compiler2: off
